[VMEM] WARNING: physical memory size is smaller than virtual memory size.

*** ChampSim Multicore Out-of-Order Simulator ***
Warmup Instructions: 50000000
Simulation Instructions: 100000000
Number of CPUs: 1
Page size: 4096

Initialize SIGNATURE TABLE
ST_SET: 1
ST_WAY: 256
ST_TAG_BIT: 16

Initialize PATTERN TABLE
PT_SET: 512
PT_WAY: 4
SIG_DELTA_BIT: 7
C_SIG_BIT: 4
C_DELTA_BIT: 4

Initialize PREFETCH FILTER
FILTER_SET: 1024
Off-chip DRAM Size: 16 GiB Channels: 1 Width: 64-bit Data Rate: 3205 MT/s
Heartbeat CPU 0 instructions: 10000000 cycles: 3709859 heartbeat IPC: 2.696 cumulative IPC: 2.696 (Simulation time: 00 hr 07 min 43 sec)
Heartbeat CPU 0 instructions: 20000001 cycles: 6234541 heartbeat IPC: 3.961 cumulative IPC: 3.208 (Simulation time: 00 hr 13 min 25 sec)
Heartbeat CPU 0 instructions: 30000003 cycles: 8753860 heartbeat IPC: 3.969 cumulative IPC: 3.427 (Simulation time: 00 hr 20 min 24 sec)
Heartbeat CPU 0 instructions: 40000003 cycles: 11277706 heartbeat IPC: 3.962 cumulative IPC: 3.547 (Simulation time: 00 hr 26 min 05 sec)
Warmup finished CPU 0 instructions: 50000002 cycles: 13799569 cumulative IPC: 3.623 (Simulation time: 00 hr 31 min 01 sec)
Warmup complete CPU 0 instructions: 50000002 cycles: 13799569 cumulative IPC: 3.623 (Simulation time: 00 hr 31 min 01 sec)
Heartbeat CPU 0 instructions: 50000007 cycles: 13799570 heartbeat IPC: 3.965 cumulative IPC: 5 (Simulation time: 00 hr 31 min 01 sec)
Heartbeat CPU 0 instructions: 60000011 cycles: 55520185 heartbeat IPC: 0.2397 cumulative IPC: 0.2397 (Simulation time: 01 hr 06 min 01 sec)
Heartbeat CPU 0 instructions: 70000015 cycles: 95258645 heartbeat IPC: 0.2516 cumulative IPC: 0.2455 (Simulation time: 01 hr 29 min 17 sec)
Heartbeat CPU 0 instructions: 80000016 cycles: 137413018 heartbeat IPC: 0.2372 cumulative IPC: 0.2427 (Simulation time: 01 hr 45 min 02 sec)
Heartbeat CPU 0 instructions: 90000017 cycles: 172774865 heartbeat IPC: 0.2828 cumulative IPC: 0.2516 (Simulation time: 01 hr 53 min 53 sec)
Heartbeat CPU 0 instructions: 100000017 cycles: 213521171 heartbeat IPC: 0.2454 cumulative IPC: 0.2503 (Simulation time: 02 hr 03 min 54 sec)
Heartbeat CPU 0 instructions: 110000020 cycles: 244053162 heartbeat IPC: 0.3275 cumulative IPC: 0.2606 (Simulation time: 02 hr 11 min 37 sec)
Heartbeat CPU 0 instructions: 120000024 cycles: 278548315 heartbeat IPC: 0.2899 cumulative IPC: 0.2644 (Simulation time: 02 hr 20 min 03 sec)
Heartbeat CPU 0 instructions: 130000024 cycles: 324504036 heartbeat IPC: 0.2176 cumulative IPC: 0.2575 (Simulation time: 02 hr 31 min 07 sec)
Heartbeat CPU 0 instructions: 140000025 cycles: 365771073 heartbeat IPC: 0.2423 cumulative IPC: 0.2557 (Simulation time: 02 hr 41 min 36 sec)
Simulation finished CPU 0 instructions: 100000002 cycles: 381306444 cumulative IPC: 0.2623 (Simulation time: 02 hr 48 min 31 sec)
Simulation complete CPU 0 instructions: 100000002 cycles: 381306444 cumulative IPC: 0.2623 (Simulation time: 02 hr 48 min 31 sec)

ChampSim completed all CPUs

=== Simulation ===
CPU 0 runs ./traces/623.xalancbmk_s-10B.champsimtrace.xz

Region of Interest Statistics

CPU 0 cumulative IPC: 0.2623 instructions: 100000002 cycles: 381306444
CPU 0 Branch Prediction Accuracy: 94.61% MPKI: 13.93 Average ROB Occupancy at Mispredict: 40.75
Branch type MPKI
BRANCH_DIRECT_JUMP: 0.09703
BRANCH_INDIRECT: 0.018
BRANCH_CONDITIONAL: 13.3
BRANCH_DIRECT_CALL: 9e-05
BRANCH_INDIRECT_CALL: 0.1243
BRANCH_RETURN: 0.3927

cpu0->cpu0_STLB TOTAL        ACCESS:     723750 HIT:     242573 MISS:     481177 MSHR_MERGE:          0
cpu0->cpu0_STLB LOAD         ACCESS:     723750 HIT:     242573 MISS:     481177 MSHR_MERGE:          0
cpu0->cpu0_STLB RFO          ACCESS:          0 HIT:          0 MISS:          0 MSHR_MERGE:          0
cpu0->cpu0_STLB PREFETCH     ACCESS:          0 HIT:          0 MISS:          0 MSHR_MERGE:          0
cpu0->cpu0_STLB WRITE        ACCESS:          0 HIT:          0 MISS:          0 MSHR_MERGE:          0
cpu0->cpu0_STLB TRANSLATION  ACCESS:          0 HIT:          0 MISS:          0 MSHR_MERGE:          0
cpu0->cpu0_STLB PREFETCH REQUESTED:          0 ISSUED:          0 USEFUL:          0 USELESS:          0
cpu0->cpu0_STLB AVERAGE MISS LATENCY: 367.7 cycles
cpu0->cpu0_L2C TOTAL        ACCESS:    6779224 HIT:    1457474 MISS:    5321750 MSHR_MERGE:     977542
cpu0->cpu0_L2C LOAD         ACCESS:    2974416 HIT:     788282 MISS:    2186134 MSHR_MERGE:       9161
cpu0->cpu0_L2C RFO          ACCESS:      43374 HIT:      20628 MISS:      22746 MSHR_MERGE:          0
cpu0->cpu0_L2C PREFETCH     ACCESS:    2935010 HIT:     578328 MISS:    2356682 MSHR_MERGE:     968381
cpu0->cpu0_L2C WRITE        ACCESS:      81717 HIT:      69597 MISS:      12120 MSHR_MERGE:          0
cpu0->cpu0_L2C TRANSLATION  ACCESS:     744707 HIT:        639 MISS:     744068 MSHR_MERGE:          0
cpu0->cpu0_L2C PREFETCH REQUESTED:    2935102 ISSUED:    2935010 USEFUL:      18524 USELESS:       9114
cpu0->cpu0_L2C AVERAGE MISS LATENCY: 182.9 cycles
cpu0->cpu0_L1I TOTAL        ACCESS:    2885916 HIT:    2384640 MISS:     501276 MSHR_MERGE:     144599
cpu0->cpu0_L1I LOAD         ACCESS:    2885916 HIT:    2384640 MISS:     501276 MSHR_MERGE:     144599
cpu0->cpu0_L1I RFO          ACCESS:          0 HIT:          0 MISS:          0 MSHR_MERGE:          0
cpu0->cpu0_L1I PREFETCH     ACCESS:          0 HIT:          0 MISS:          0 MSHR_MERGE:          0
cpu0->cpu0_L1I WRITE        ACCESS:          0 HIT:          0 MISS:          0 MSHR_MERGE:          0
cpu0->cpu0_L1I TRANSLATION  ACCESS:          0 HIT:          0 MISS:          0 MSHR_MERGE:          0
cpu0->cpu0_L1I PREFETCH REQUESTED:          0 ISSUED:          0 USEFUL:          0 USELESS:          0
cpu0->cpu0_L1I AVERAGE MISS LATENCY: 13.51 cycles
cpu0->cpu0_L1D TOTAL        ACCESS:   30698247 HIT:   24450884 MISS:    6247363 MSHR_MERGE:    2841539
cpu0->cpu0_L1D LOAD         ACCESS:   24791157 HIT:   19567406 MISS:    5223751 MSHR_MERGE:    2606009
cpu0->cpu0_L1D RFO          ACCESS:          0 HIT:          0 MISS:          0 MSHR_MERGE:          0
cpu0->cpu0_L1D PREFETCH     ACCESS:          0 HIT:          0 MISS:          0 MSHR_MERGE:          0
cpu0->cpu0_L1D WRITE        ACCESS:    4944256 HIT:    4682416 MISS:     261840 MSHR_MERGE:     218465
cpu0->cpu0_L1D TRANSLATION  ACCESS:     962834 HIT:     201062 MISS:     761772 MSHR_MERGE:      17065
cpu0->cpu0_L1D PREFETCH REQUESTED:          0 ISSUED:          0 USEFUL:          0 USELESS:          0
cpu0->cpu0_L1D AVERAGE MISS LATENCY: 167.5 cycles
cpu0->cpu0_ITLB TOTAL        ACCESS:    2521384 HIT:    2366012 MISS:     155372 MSHR_MERGE:      89447
cpu0->cpu0_ITLB LOAD         ACCESS:    2521384 HIT:    2366012 MISS:     155372 MSHR_MERGE:      89447
cpu0->cpu0_ITLB RFO          ACCESS:          0 HIT:          0 MISS:          0 MSHR_MERGE:          0
cpu0->cpu0_ITLB PREFETCH     ACCESS:          0 HIT:          0 MISS:          0 MSHR_MERGE:          0
cpu0->cpu0_ITLB WRITE        ACCESS:          0 HIT:          0 MISS:          0 MSHR_MERGE:          0
cpu0->cpu0_ITLB TRANSLATION  ACCESS:          0 HIT:          0 MISS:          0 MSHR_MERGE:          0
cpu0->cpu0_ITLB PREFETCH REQUESTED:          0 ISSUED:          0 USEFUL:          0 USELESS:          0
cpu0->cpu0_ITLB AVERAGE MISS LATENCY: 37.5 cycles
cpu0->cpu0_DTLB TOTAL        ACCESS:   29126801 HIT:   27508611 MISS:    1618190 MSHR_MERGE:     960365
cpu0->cpu0_DTLB LOAD         ACCESS:   29126801 HIT:   27508611 MISS:    1618190 MSHR_MERGE:     960365
cpu0->cpu0_DTLB RFO          ACCESS:          0 HIT:          0 MISS:          0 MSHR_MERGE:          0
cpu0->cpu0_DTLB PREFETCH     ACCESS:          0 HIT:          0 MISS:          0 MSHR_MERGE:          0
cpu0->cpu0_DTLB WRITE        ACCESS:          0 HIT:          0 MISS:          0 MSHR_MERGE:          0
cpu0->cpu0_DTLB TRANSLATION  ACCESS:          0 HIT:          0 MISS:          0 MSHR_MERGE:          0
cpu0->cpu0_DTLB PREFETCH REQUESTED:          0 ISSUED:          0 USEFUL:          0 USELESS:          0
cpu0->cpu0_DTLB AVERAGE MISS LATENCY: 271.4 cycles
cpu0->LLC TOTAL        ACCESS:    4360408 HIT:     696685 MISS:    3663723 MSHR_MERGE:     127774
cpu0->LLC LOAD         ACCESS:    2176973 HIT:     424420 MISS:    1752553 MSHR_MERGE:      80446
cpu0->LLC RFO          ACCESS:      22746 HIT:       2897 MISS:      19849 MSHR_MERGE:        165
cpu0->LLC PREFETCH     ACCESS:    1388297 HIT:     237992 MISS:    1150305 MSHR_MERGE:      47163
cpu0->LLC WRITE        ACCESS:      28324 HIT:      25674 MISS:       2650 MSHR_MERGE:          0
cpu0->LLC TRANSLATION  ACCESS:     744068 HIT:       5702 MISS:     738366 MSHR_MERGE:          0
cpu0->LLC PREFETCH REQUESTED:          0 ISSUED:          0 USEFUL:          0 USELESS:          0
cpu0->LLC AVERAGE MISS LATENCY: 196.7 cycles

DRAM Statistics

Channel 0 RQ ROW_BUFFER_HIT:      44216
  ROW_BUFFER_MISS:    3489082
  AVG DBUS CONGESTED CYCLE: 6.569
Channel 0 WQ ROW_BUFFER_HIT:      12332
  ROW_BUFFER_MISS:      11686
  FULL:          0
Channel 0 REFRESHES ISSUED:      31776
